/*--------------------------------*- C++ -*----------------------------------*\
  =========                 |
  \\      /  F ield         | OpenFOAM: The Open Source CFD Toolbox
   \\    /   O peration     | Website:  https://openfoam.org
    \\  /    A nd           | Version:  7
     \\/     M anipulation  |
\*---------------------------------------------------------------------------*/
FoamFile
{
    version     2.0;
    format      ascii;
    class       volVectorField;
    object      U;
}
// * * * * * * * * * * * * * * * * * * * * * * * * * * * * * * * * * * * * * //

dimensions      [0 1 -1 0 0 0 0];

internalField   uniform (0 0 0);

boundaryField
{

    leftDoor
    {
        type            fixedValue;
        value           uniform (10 0 0);
    }

    midDoor
    {
        type            fixedValue;
        value           uniform (10 0 0);
    }

    rightDoor
    {
        type            zeroGradient;
    }

    front
    {
        type            zeroGradient;
    }

    back
    {
        type            zeroGradient;
    }

    left
    {
        type            zeroGradient;
    }

    right
    {
        type            zeroGradient;
    }

    top
    {
        type            zeroGradient;
    }

    bot
    {
        type            zeroGradient;
    }
}

// ************************************************************************* //
